1

                    Execution started at 20231018.102022         



                    ---------------------------------------
                                     SWAN
                    SIMULATION OF WAVES IN NEAR SHORE AREAS
                             VERSION NUMBER 41.10               
                    ---------------------------------------


    
 $*************************HEADING************************
    
 $
    
 PROJ 'IreWW' 'IWW'
    
 $
    
 $********************MODEL INPUT*************************
    
 $
    
 SET LEVEL 0.0
    
 SET DEPMIN 0.1
    
 MODE NONSTATIONARY
    
 $
    
 COORDINATES SPHERICAL CCM
    
 $
    
 CGRID UNSTRUCTURED CIRCLE MDC=36 FLOW=0.031384 MSC=40
 Highest discrete frequency (in Hz): FHIGH =  1.4204
    
 READ UNSTRUCTURED


 The unstructured grid contains solely triangles generated by SMS/ADCIRC

 Number of vertices          =     295

 Number of cells             =     420
    Number of internal cells =     261
    Number of boundary cells =     159

 Number of faces             =     715
    Number of internal faces =     545
    Number of boundary faces =     170


 The minimum gridsize =     0.00625
 The maximum gridsize =     0.04348
    
 $
    
 INIT ZERO
    
 $
    
 INPGRID WLEV UNSTRUCTURED EXCEPTION 0.1  NONSTAT 20110825.120000 1200 SEC 20110828.120000
    
 READINP ADCWL
    
 $
    
 INPGRID  CUR UNSTRUCTURED EXCEPTION 0.   NONSTAT 20110825.120000 1200 SEC 20110828.120000
    
 READINP ADCCUR
    
 $
    
 INPGRID WIND UNSTRUCTURED EXCEPTION 0.   NONSTAT 20110825.120000 1200 SEC 20110828.120000
    
 READINP ADCWIND
    
 $
    
 INPGRID FRIC UNSTRUCTURED EXCEPTION 0.05 NONSTAT 20110825.120000 1200 SEC 20110828.120000
    
 READINP ADCFRIC
    
 $
    
 GEN3 KOMEN AGROW
    
 WCAP KOMEN 2.36E-5 3.02E-3 2.0 1.0 1.0
    
 BREAKING
    
 FRICTION MADSEN KN=0.05
    
 PROP BSBT
    
 NUM STOPC DABS=0.005 DREL=0.01 CURVAT=0.005 NPNTS=95 NONSTAT MXITNS=20
    
 $
    
 $*************************************************************
    
 $
    
 QUANTITY HS DIR TMM10 TPS FMIN=0.031384 FMAX=1.420416
 ** Warning          : Integration range not allowed for this quantity
    
 $
    
 TEST 1,0
    
 COMPUTE 20110825.120000 1200 SEC 20110828.120000
 ** Warning          : Quadruplets will be updated per iteration
 ** Warning          : instead of per sweep. This will increase
 ** Warning          : amount of internal memory with a factor 2
 ** Warning          : no output requested
 Time of computation ->  20110825.122000      in sec:      44400.

----------------------------------------------------------------
                  COMPUTATIONAL PART OF SWAN
----------------------------------------------------------------

 Gridresolution       : MSC              41 MDC             36
                      : MTC             216
                      : NSTATC            1 ITERMX          20
 Propagation flags    : ITFRE             1 IREFR            1
 Source term flags    : IBOT              3 ISURF            1
                      : IWCAP             1 IWIND            3
                      : ITRIAD            0 IQUAD            3
                      : IVEG              0 ITURBV           0
                      : IMUD              0
 Spectral bin         : df/f     0.1000E+00 DDIR    0.1000E+02
 Physical constants   : GRAV     0.9810E+01 RHO     0.1025E+04
 Wind input           : WSPEED   0.0000E+00 DIR     0.0000E+00
 Tail parameters      : E(f)     0.4000E+01 E(k)    0.2500E+01
                      : A(f)     0.5000E+01 A(k)    0.3000E+01
 Accuracy parameters  : DREL     0.1000E-01 NPNTS   0.9500E+02
                      : DHABS    0.5000E-02 CURVAT  0.5000E-02
                      : GRWMX    0.1000E+00
 Drying/flooding      : LEVEL    0.0000E+00 DEPMIN  0.1000E+00
 The Cartesian convention for wind and wave directions is used
 Scheme for geographic propagation is BSBT  
 Scheme spectral space: CSS      0.5000E+00 CDD     0.5000E+00
 Solver is SIP
                      : EPS2     0.1000E-03 OUTPUT           0
                      : NITER            20
 Current is  on
 Quadruplets          : IQUAD             3
                      : LAMBDA   0.2500E+00 CNL4    0.3000E+08
                      : CSH1     0.5500E+01 CSH2    0.8330E+00
                      : CSH3    -0.1250E+01
 Maximum Ursell nr for Snl4 :    0.1000E+02
 Triads is off
 Madsen et al. (`84)  : MF      -0.8000E-01 KN      0.5000E-01
 Vegetation is off
 Turbulence is off
 Fluid mud is off
 W-cap Komen (`84)    : EMPCOF (CDS2):   0.2360E-04
 W-cap Komen (`84)    : APM (STPM)   :   0.3020E-02
 W-cap Komen (`84)    : POWST        :   0.2000E+01
 W-cap Komen (`84)    : DELTA        :   0.1000E+01
 W-cap Komen (`84)    : POWK         :   0.1000E+01
 Snyder/Komen wind input
 Battjes&Janssen (`78): ALPHA    0.1000E+01 GAMMA   0.7300E+00
 Set-up is off
 Diffraction is off
 Janssen (`89,`90)    : ALPHA    0.1000E-01 KAPPA   0.4100E+00
 Janssen (`89,`90)    : RHOA     0.1280E+01 RHOW    0.1025E+04
 
 1st and 2nd gen. wind: CF10     0.1880E+03 CF20    0.5900E+00
                      : CF30     0.1200E+00 CF40    0.2500E+03
                      : CF50     0.2300E-02 CF60   -0.2230E+00
                      : CF70     0.0000E+00 CF80   -0.5600E+00
                      : RHOAW    0.1249E-02 EDMLPM  0.3600E-02
                      : CDRAG    0.1230E-02 UMIN    0.1000E+01
                      : LIM_PM   0.1300E+00
 
 Number of active points =    295 (fillings-degree: 100.00 %)
       not possible to compute accuracy, first iteration

 accuracy OK in   3.56 % of wet grid points ( 95.00 % required)

 accuracy OK in   0.27 % of wet grid points ( 95.00 % required)

 accuracy OK in   2.61 % of wet grid points ( 95.00 % required)

 accuracy OK in  13.19 % of wet grid points ( 95.00 % required)

 accuracy OK in  38.86 % of wet grid points ( 95.00 % required)

 accuracy OK in  32.27 % of wet grid points ( 95.00 % required)

 accuracy OK in  47.97 % of wet grid points ( 95.00 % required)

 accuracy OK in  53.69 % of wet grid points ( 95.00 % required)

 accuracy OK in  31.75 % of wet grid points ( 95.00 % required)

 accuracy OK in  29.93 % of wet grid points ( 95.00 % required)

 accuracy OK in  59.76 % of wet grid points ( 95.00 % required)

 accuracy OK in  69.13 % of wet grid points ( 95.00 % required)

 accuracy OK in  61.15 % of wet grid points ( 95.00 % required)

 accuracy OK in  34.26 % of wet grid points ( 95.00 % required)

 accuracy OK in   6.77 % of wet grid points ( 95.00 % required)

 accuracy OK in   3.39 % of wet grid points ( 95.00 % required)

 accuracy OK in   3.04 % of wet grid points ( 95.00 % required)

 accuracy OK in  12.84 % of wet grid points ( 95.00 % required)

 accuracy OK in  23.68 % of wet grid points ( 95.00 % required)

 ** Warning          : no output requested
 Time of computation ->  20110825.124000      in sec:      45600.
       not possible to compute accuracy, first iteration

 accuracy OK in   1.13 % of wet grid points ( 95.00 % required)

 accuracy OK in   0.09 % of wet grid points ( 95.00 % required)

 accuracy OK in   1.31 % of wet grid points ( 95.00 % required)

 accuracy OK in   3.04 % of wet grid points ( 95.00 % required)

 accuracy OK in  21.51 % of wet grid points ( 95.00 % required)

 accuracy OK in  54.65 % of wet grid points ( 95.00 % required)

 accuracy OK in  56.81 % of wet grid points ( 95.00 % required)

 accuracy OK in  57.25 % of wet grid points ( 95.00 % required)

 accuracy OK in  65.40 % of wet grid points ( 95.00 % required)

 accuracy OK in  68.26 % of wet grid points ( 95.00 % required)

 accuracy OK in  70.34 % of wet grid points ( 95.00 % required)

 accuracy OK in  71.21 % of wet grid points ( 95.00 % required)

 accuracy OK in  76.50 % of wet grid points ( 95.00 % required)

 accuracy OK in  75.20 % of wet grid points ( 95.00 % required)

 accuracy OK in  77.80 % of wet grid points ( 95.00 % required)

 accuracy OK in  78.67 % of wet grid points ( 95.00 % required)

 accuracy OK in  80.66 % of wet grid points ( 95.00 % required)

 accuracy OK in  81.10 % of wet grid points ( 95.00 % required)

 accuracy OK in  84.13 % of wet grid points ( 95.00 % required)

 ** Warning          : no output requested
 Time of computation ->  20110825.130000      in sec:      46800.
       not possible to compute accuracy, first iteration

 accuracy OK in   3.04 % of wet grid points ( 95.00 % required)

 accuracy OK in   3.04 % of wet grid points ( 95.00 % required)

 accuracy OK in   3.04 % of wet grid points ( 95.00 % required)

 accuracy OK in  41.20 % of wet grid points ( 95.00 % required)

 accuracy OK in  58.81 % of wet grid points ( 95.00 % required)

 accuracy OK in  83.61 % of wet grid points ( 95.00 % required)

 accuracy OK in  76.67 % of wet grid points ( 95.00 % required)

 accuracy OK in  87.26 % of wet grid points ( 95.00 % required)

 accuracy OK in  85.69 % of wet grid points ( 95.00 % required)

 accuracy OK in  90.64 % of wet grid points ( 95.00 % required)

 accuracy OK in  88.90 % of wet grid points ( 95.00 % required)

 accuracy OK in  91.07 % of wet grid points ( 95.00 % required)

 accuracy OK in  91.07 % of wet grid points ( 95.00 % required)

 accuracy OK in  92.81 % of wet grid points ( 95.00 % required)

 accuracy OK in  92.29 % of wet grid points ( 95.00 % required)

 accuracy OK in  93.07 % of wet grid points ( 95.00 % required)

 accuracy OK in  93.15 % of wet grid points ( 95.00 % required)

 accuracy OK in  93.50 % of wet grid points ( 95.00 % required)

 accuracy OK in  93.67 % of wet grid points ( 95.00 % required)

 ** Warning          : no output requested
 Time of computation ->  20110825.132000      in sec:      48000.
       not possible to compute accuracy, first iteration

 accuracy OK in   8.76 % of wet grid points ( 95.00 % required)

 accuracy OK in   8.76 % of wet grid points ( 95.00 % required)

 accuracy OK in   7.55 % of wet grid points ( 95.00 % required)

 accuracy OK in  78.32 % of wet grid points ( 95.00 % required)

 accuracy OK in  80.75 % of wet grid points ( 95.00 % required)

 accuracy OK in  92.81 % of wet grid points ( 95.00 % required)

 accuracy OK in  95.15 % of wet grid points ( 95.00 % required)

 ** Warning          : no output requested
 Time of computation ->  20110825.134000      in sec:      49200.
       not possible to compute accuracy, first iteration

 accuracy OK in  35.22 % of wet grid points ( 95.00 % required)

 accuracy OK in  35.22 % of wet grid points ( 95.00 % required)

 accuracy OK in  29.06 % of wet grid points ( 95.00 % required)

 accuracy OK in  89.77 % of wet grid points ( 95.00 % required)

 accuracy OK in  96.02 % of wet grid points ( 95.00 % required)

 ** Warning          : no output requested
 Time of computation ->  20110825.140000      in sec:      50400.
       not possible to compute accuracy, first iteration

 accuracy OK in  68.09 % of wet grid points ( 95.00 % required)

 accuracy OK in  68.09 % of wet grid points ( 95.00 % required)

 accuracy OK in  62.71 % of wet grid points ( 95.00 % required)

 accuracy OK in  95.93 % of wet grid points ( 95.00 % required)

 ** Warning          : no output requested
 Time of computation ->  20110825.142000      in sec:      51600.
       not possible to compute accuracy, first iteration

 accuracy OK in  80.58 % of wet grid points ( 95.00 % required)

 accuracy OK in  80.58 % of wet grid points ( 95.00 % required)

 accuracy OK in  78.41 % of wet grid points ( 95.00 % required)

 accuracy OK in  97.32 % of wet grid points ( 95.00 % required)

 ** Warning          : no output requested
 Time of computation ->  20110825.144000      in sec:      52800.
       not possible to compute accuracy, first iteration

 accuracy OK in  88.56 % of wet grid points ( 95.00 % required)

 accuracy OK in  88.56 % of wet grid points ( 95.00 % required)

 accuracy OK in  87.78 % of wet grid points ( 95.00 % required)

 accuracy OK in  98.27 % of wet grid points ( 95.00 % required)

 ** Warning          : no output requested
 Time of computation ->  20110825.150000      in sec:      54000.
       not possible to compute accuracy, first iteration

 accuracy OK in  92.89 % of wet grid points ( 95.00 % required)

 accuracy OK in  92.89 % of wet grid points ( 95.00 % required)

 accuracy OK in  93.15 % of wet grid points ( 95.00 % required)

 accuracy OK in  98.70 % of wet grid points ( 95.00 % required)

 ** Warning          : no output requested
 Time of computation ->  20110825.152000      in sec:      55200.
       not possible to compute accuracy, first iteration

 accuracy OK in  94.97 % of wet grid points ( 95.00 % required)

 accuracy OK in  94.97 % of wet grid points ( 95.00 % required)

 accuracy OK in  93.85 % of wet grid points ( 95.00 % required)

 accuracy OK in  98.44 % of wet grid points ( 95.00 % required)

 ** Warning          : no output requested
 Time of computation ->  20110825.154000      in sec:      56400.
       not possible to compute accuracy, first iteration

 accuracy OK in  95.93 % of wet grid points ( 95.00 % required)

 ** Warning          : no output requested
 Time of computation ->  20110825.160000      in sec:      57600.
       not possible to compute accuracy, first iteration

 accuracy OK in  96.45 % of wet grid points ( 95.00 % required)

 ** Warning          : no output requested
 Time of computation ->  20110825.162000      in sec:      58800.
       not possible to compute accuracy, first iteration

 accuracy OK in  96.88 % of wet grid points ( 95.00 % required)

 ** Warning          : no output requested
 Time of computation ->  20110825.164000      in sec:      60000.
       not possible to compute accuracy, first iteration

 accuracy OK in  96.28 % of wet grid points ( 95.00 % required)

 ** Warning          : no output requested
 Time of computation ->  20110825.170000      in sec:      61200.
       not possible to compute accuracy, first iteration

 accuracy OK in  96.36 % of wet grid points ( 95.00 % required)

 ** Warning          : no output requested
 Time of computation ->  20110825.172000      in sec:      62400.
       not possible to compute accuracy, first iteration

 accuracy OK in  96.71 % of wet grid points ( 95.00 % required)

 ** Warning          : no output requested
 Time of computation ->  20110825.174000      in sec:      63600.
       not possible to compute accuracy, first iteration

 accuracy OK in  96.62 % of wet grid points ( 95.00 % required)

 ** Warning          : no output requested
 Time of computation ->  20110825.180000      in sec:      64800.
       not possible to compute accuracy, first iteration

 accuracy OK in  96.88 % of wet grid points ( 95.00 % required)

 ** Warning          : no output requested
 Time of computation ->  20110825.182000      in sec:      66000.
       not possible to compute accuracy, first iteration

 accuracy OK in  97.23 % of wet grid points ( 95.00 % required)

 ** Warning          : no output requested
 Time of computation ->  20110825.184000      in sec:      67200.
       not possible to compute accuracy, first iteration

 accuracy OK in  96.97 % of wet grid points ( 95.00 % required)

 ** Warning          : no output requested
 Time of computation ->  20110825.190000      in sec:      68400.
       not possible to compute accuracy, first iteration

 accuracy OK in  97.14 % of wet grid points ( 95.00 % required)

 ** Warning          : no output requested
 Time of computation ->  20110825.192000      in sec:      69600.
       not possible to compute accuracy, first iteration

 accuracy OK in  96.97 % of wet grid points ( 95.00 % required)

 ** Warning          : no output requested
 Time of computation ->  20110825.194000      in sec:      70800.
       not possible to compute accuracy, first iteration

 accuracy OK in  96.28 % of wet grid points ( 95.00 % required)

 ** Warning          : no output requested
 Time of computation ->  20110825.200000      in sec:      72000.
       not possible to compute accuracy, first iteration

 accuracy OK in  95.67 % of wet grid points ( 95.00 % required)

 ** Warning          : no output requested
 Time of computation ->  20110825.202000      in sec:      73200.
       not possible to compute accuracy, first iteration

 accuracy OK in  94.80 % of wet grid points ( 95.00 % required)

 accuracy OK in  94.80 % of wet grid points ( 95.00 % required)

 accuracy OK in  95.67 % of wet grid points ( 95.00 % required)

 ** Warning          : no output requested
 Time of computation ->  20110825.204000      in sec:      74400.
       not possible to compute accuracy, first iteration

 accuracy OK in  95.93 % of wet grid points ( 95.00 % required)

 ** Warning          : no output requested
 Time of computation ->  20110825.210000      in sec:      75600.
       not possible to compute accuracy, first iteration

 accuracy OK in  95.58 % of wet grid points ( 95.00 % required)

 ** Warning          : no output requested
 Time of computation ->  20110825.212000      in sec:      76800.
       not possible to compute accuracy, first iteration

 accuracy OK in  94.97 % of wet grid points ( 95.00 % required)

 accuracy OK in  94.97 % of wet grid points ( 95.00 % required)

 accuracy OK in  96.36 % of wet grid points ( 95.00 % required)

 ** Warning          : no output requested
 Time of computation ->  20110825.214000      in sec:      78000.
       not possible to compute accuracy, first iteration

 accuracy OK in  95.84 % of wet grid points ( 95.00 % required)

 ** Warning          : no output requested
 Time of computation ->  20110825.220000      in sec:      79200.
       not possible to compute accuracy, first iteration

 accuracy OK in  96.10 % of wet grid points ( 95.00 % required)

 ** Warning          : no output requested
 Time of computation ->  20110825.222000      in sec:      80400.
       not possible to compute accuracy, first iteration

 accuracy OK in  95.58 % of wet grid points ( 95.00 % required)

 ** Warning          : no output requested
 Time of computation ->  20110825.224000      in sec:      81600.
       not possible to compute accuracy, first iteration

 accuracy OK in  94.37 % of wet grid points ( 95.00 % required)

 accuracy OK in  94.37 % of wet grid points ( 95.00 % required)

 accuracy OK in  96.36 % of wet grid points ( 95.00 % required)

 ** Warning          : no output requested
 Time of computation ->  20110825.230000      in sec:      82800.
       not possible to compute accuracy, first iteration

 accuracy OK in  94.02 % of wet grid points ( 95.00 % required)

 accuracy OK in  94.02 % of wet grid points ( 95.00 % required)

 accuracy OK in  95.67 % of wet grid points ( 95.00 % required)

 ** Warning          : no output requested
 Time of computation ->  20110825.232000      in sec:      84000.
       not possible to compute accuracy, first iteration

 accuracy OK in  94.71 % of wet grid points ( 95.00 % required)

 accuracy OK in  94.71 % of wet grid points ( 95.00 % required)

 accuracy OK in  96.45 % of wet grid points ( 95.00 % required)

 ** Warning          : no output requested
 Time of computation ->  20110825.234000      in sec:      85200.
       not possible to compute accuracy, first iteration

 accuracy OK in  95.41 % of wet grid points ( 95.00 % required)

 ** Warning          : no output requested
 Time of computation ->  20110826.000000      in sec:      86400.
       not possible to compute accuracy, first iteration

 accuracy OK in  94.63 % of wet grid points ( 95.00 % required)

 accuracy OK in  94.63 % of wet grid points ( 95.00 % required)

 accuracy OK in  96.62 % of wet grid points ( 95.00 % required)

 ** Warning          : no output requested
 Time of computation ->  20110826.002000      in sec:      87600.
       not possible to compute accuracy, first iteration

 accuracy OK in  95.84 % of wet grid points ( 95.00 % required)

 ** Warning          : no output requested
 Time of computation ->  20110826.004000      in sec:      88800.
       not possible to compute accuracy, first iteration

 accuracy OK in  95.32 % of wet grid points ( 95.00 % required)

 ** Warning          : no output requested
 Time of computation ->  20110826.010000      in sec:      90000.
       not possible to compute accuracy, first iteration

 accuracy OK in  94.54 % of wet grid points ( 95.00 % required)

 accuracy OK in  94.54 % of wet grid points ( 95.00 % required)

 accuracy OK in  96.28 % of wet grid points ( 95.00 % required)

 ** Warning          : no output requested
 Time of computation ->  20110826.012000      in sec:      91200.
       not possible to compute accuracy, first iteration

 accuracy OK in  94.80 % of wet grid points ( 95.00 % required)

 accuracy OK in  94.80 % of wet grid points ( 95.00 % required)

 accuracy OK in  95.76 % of wet grid points ( 95.00 % required)

 ** Warning          : no output requested
 Time of computation ->  20110826.014000      in sec:      92400.
       not possible to compute accuracy, first iteration

 accuracy OK in  95.06 % of wet grid points ( 95.00 % required)

 ** Warning          : no output requested
 Time of computation ->  20110826.020000      in sec:      93600.
       not possible to compute accuracy, first iteration

 accuracy OK in  95.84 % of wet grid points ( 95.00 % required)

 ** Warning          : no output requested
 Time of computation ->  20110826.022000      in sec:      94800.
       not possible to compute accuracy, first iteration

 accuracy OK in  95.23 % of wet grid points ( 95.00 % required)

 ** Warning          : no output requested
 Time of computation ->  20110826.024000      in sec:      96000.
       not possible to compute accuracy, first iteration

 accuracy OK in  95.32 % of wet grid points ( 95.00 % required)

 ** Warning          : no output requested
 Time of computation ->  20110826.030000      in sec:      97200.
       not possible to compute accuracy, first iteration

 accuracy OK in  95.23 % of wet grid points ( 95.00 % required)

 ** Warning          : no output requested
 Time of computation ->  20110826.032000      in sec:      98400.
       not possible to compute accuracy, first iteration

 accuracy OK in  93.76 % of wet grid points ( 95.00 % required)

 accuracy OK in  93.76 % of wet grid points ( 95.00 % required)

 accuracy OK in  96.71 % of wet grid points ( 95.00 % required)

 ** Warning          : no output requested
 Time of computation ->  20110826.034000      in sec:      99600.
       not possible to compute accuracy, first iteration

 accuracy OK in  94.11 % of wet grid points ( 95.00 % required)

 accuracy OK in  94.11 % of wet grid points ( 95.00 % required)

 accuracy OK in  95.93 % of wet grid points ( 95.00 % required)

 ** Warning          : no output requested
 Time of computation ->  20110826.040000      in sec:     100800.
       not possible to compute accuracy, first iteration

 accuracy OK in  95.76 % of wet grid points ( 95.00 % required)

 ** Warning          : no output requested
 Time of computation ->  20110826.042000      in sec:     102000.
       not possible to compute accuracy, first iteration

 accuracy OK in  95.32 % of wet grid points ( 95.00 % required)

 ** Warning          : no output requested
 Time of computation ->  20110826.044000      in sec:     103200.
       not possible to compute accuracy, first iteration

 accuracy OK in  95.58 % of wet grid points ( 95.00 % required)

 ** Warning          : no output requested
 Time of computation ->  20110826.050000      in sec:     104400.
       not possible to compute accuracy, first iteration

 accuracy OK in  95.58 % of wet grid points ( 95.00 % required)

 ** Warning          : no output requested
 Time of computation ->  20110826.052000      in sec:     105600.
       not possible to compute accuracy, first iteration

 accuracy OK in  95.93 % of wet grid points ( 95.00 % required)

 ** Warning          : no output requested
 Time of computation ->  20110826.054000      in sec:     106800.
       not possible to compute accuracy, first iteration

 accuracy OK in  95.67 % of wet grid points ( 95.00 % required)

 ** Warning          : no output requested
 Time of computation ->  20110826.060000      in sec:     108000.
       not possible to compute accuracy, first iteration

 accuracy OK in  95.41 % of wet grid points ( 95.00 % required)

 ** Warning          : no output requested
 Time of computation ->  20110826.062000      in sec:     109200.
       not possible to compute accuracy, first iteration

 accuracy OK in  95.67 % of wet grid points ( 95.00 % required)

 ** Warning          : no output requested
 Time of computation ->  20110826.064000      in sec:     110400.
       not possible to compute accuracy, first iteration

 accuracy OK in  96.28 % of wet grid points ( 95.00 % required)

 ** Warning          : no output requested
 Time of computation ->  20110826.070000      in sec:     111600.
       not possible to compute accuracy, first iteration

 accuracy OK in  95.76 % of wet grid points ( 95.00 % required)

 ** Warning          : no output requested
 Time of computation ->  20110826.072000      in sec:     112800.
       not possible to compute accuracy, first iteration

 accuracy OK in  95.58 % of wet grid points ( 95.00 % required)

 ** Warning          : no output requested
 Time of computation ->  20110826.074000      in sec:     114000.
       not possible to compute accuracy, first iteration

 accuracy OK in  95.84 % of wet grid points ( 95.00 % required)

 ** Warning          : no output requested
 Time of computation ->  20110826.080000      in sec:     115200.
       not possible to compute accuracy, first iteration

 accuracy OK in  95.58 % of wet grid points ( 95.00 % required)

 ** Warning          : no output requested
 Time of computation ->  20110826.082000      in sec:     116400.
       not possible to compute accuracy, first iteration

 accuracy OK in  94.37 % of wet grid points ( 95.00 % required)

 accuracy OK in  94.37 % of wet grid points ( 95.00 % required)

 accuracy OK in  96.54 % of wet grid points ( 95.00 % required)

 ** Warning          : no output requested
 Time of computation ->  20110826.084000      in sec:     117600.
       not possible to compute accuracy, first iteration

 accuracy OK in  93.76 % of wet grid points ( 95.00 % required)

 accuracy OK in  93.76 % of wet grid points ( 95.00 % required)

 accuracy OK in  95.41 % of wet grid points ( 95.00 % required)

 ** Warning          : no output requested
 Time of computation ->  20110826.090000      in sec:     118800.
       not possible to compute accuracy, first iteration

 accuracy OK in  94.02 % of wet grid points ( 95.00 % required)

 accuracy OK in  94.02 % of wet grid points ( 95.00 % required)

 accuracy OK in  95.76 % of wet grid points ( 95.00 % required)

 ** Warning          : no output requested
 Time of computation ->  20110826.092000      in sec:     120000.
       not possible to compute accuracy, first iteration

 accuracy OK in  94.71 % of wet grid points ( 95.00 % required)

 accuracy OK in  94.71 % of wet grid points ( 95.00 % required)

 accuracy OK in  96.45 % of wet grid points ( 95.00 % required)

 ** Warning          : no output requested
 Time of computation ->  20110826.094000      in sec:     121200.
       not possible to compute accuracy, first iteration

 accuracy OK in  95.41 % of wet grid points ( 95.00 % required)

 ** Warning          : no output requested
 Time of computation ->  20110826.100000      in sec:     122400.
       not possible to compute accuracy, first iteration

 accuracy OK in  96.10 % of wet grid points ( 95.00 % required)

 ** Warning          : no output requested
 Time of computation ->  20110826.102000      in sec:     123600.
       not possible to compute accuracy, first iteration

 accuracy OK in  94.71 % of wet grid points ( 95.00 % required)

 accuracy OK in  94.71 % of wet grid points ( 95.00 % required)

 accuracy OK in  97.92 % of wet grid points ( 95.00 % required)

 ** Warning          : no output requested
 Time of computation ->  20110826.104000      in sec:     124800.
       not possible to compute accuracy, first iteration

 accuracy OK in  95.15 % of wet grid points ( 95.00 % required)

 ** Warning          : no output requested
 Time of computation ->  20110826.110000      in sec:     126000.
       not possible to compute accuracy, first iteration

 accuracy OK in  95.58 % of wet grid points ( 95.00 % required)

 ** Warning          : no output requested
 Time of computation ->  20110826.112000      in sec:     127200.
       not possible to compute accuracy, first iteration

 accuracy OK in  95.41 % of wet grid points ( 95.00 % required)

 ** Warning          : no output requested
 Time of computation ->  20110826.114000      in sec:     128400.
       not possible to compute accuracy, first iteration

 accuracy OK in  94.54 % of wet grid points ( 95.00 % required)

 accuracy OK in  94.54 % of wet grid points ( 95.00 % required)

 accuracy OK in  97.23 % of wet grid points ( 95.00 % required)

 ** Warning          : no output requested
 Time of computation ->  20110826.120000      in sec:     129600.
       not possible to compute accuracy, first iteration

 accuracy OK in  94.11 % of wet grid points ( 95.00 % required)

 accuracy OK in  94.11 % of wet grid points ( 95.00 % required)

 accuracy OK in  96.36 % of wet grid points ( 95.00 % required)

 ** Warning          : no output requested
 Time of computation ->  20110826.122000      in sec:     130800.
       not possible to compute accuracy, first iteration

 accuracy OK in  94.11 % of wet grid points ( 95.00 % required)

 accuracy OK in  94.11 % of wet grid points ( 95.00 % required)

 accuracy OK in  96.19 % of wet grid points ( 95.00 % required)

 ** Warning          : no output requested
 Time of computation ->  20110826.124000      in sec:     132000.
       not possible to compute accuracy, first iteration

 accuracy OK in  95.06 % of wet grid points ( 95.00 % required)

 ** Warning          : no output requested
 Time of computation ->  20110826.130000      in sec:     133200.
       not possible to compute accuracy, first iteration

 accuracy OK in  95.49 % of wet grid points ( 95.00 % required)

 ** Warning          : no output requested
 Time of computation ->  20110826.132000      in sec:     134400.
       not possible to compute accuracy, first iteration

 accuracy OK in  95.23 % of wet grid points ( 95.00 % required)

 ** Warning          : no output requested
 Time of computation ->  20110826.134000      in sec:     135600.
       not possible to compute accuracy, first iteration

 accuracy OK in  95.40 % of wet grid points ( 95.00 % required)

 ** Warning          : no output requested
 Time of computation ->  20110826.140000      in sec:     136800.
       not possible to compute accuracy, first iteration

 accuracy OK in  94.62 % of wet grid points ( 95.00 % required)

 accuracy OK in  94.62 % of wet grid points ( 95.00 % required)

 accuracy OK in  97.05 % of wet grid points ( 95.00 % required)

 ** Warning          : no output requested
 Time of computation ->  20110826.142000      in sec:     138000.
       not possible to compute accuracy, first iteration

 accuracy OK in  94.71 % of wet grid points ( 95.00 % required)

 accuracy OK in  94.71 % of wet grid points ( 95.00 % required)

 accuracy OK in  96.19 % of wet grid points ( 95.00 % required)

 ** Warning          : no output requested
 Time of computation ->  20110826.144000      in sec:     139200.
       not possible to compute accuracy, first iteration

 accuracy OK in  95.14 % of wet grid points ( 95.00 % required)

 ** Warning          : no output requested
 Time of computation ->  20110826.150000      in sec:     140400.
       not possible to compute accuracy, first iteration

 accuracy OK in  96.36 % of wet grid points ( 95.00 % required)

 ** Warning          : no output requested
 Time of computation ->  20110826.152000      in sec:     141600.
       not possible to compute accuracy, first iteration

 accuracy OK in  96.10 % of wet grid points ( 95.00 % required)

 ** Warning          : no output requested
 Time of computation ->  20110826.154000      in sec:     142800.
       not possible to compute accuracy, first iteration

 accuracy OK in  95.75 % of wet grid points ( 95.00 % required)

 ** Warning          : no output requested
 Time of computation ->  20110826.160000      in sec:     144000.
       not possible to compute accuracy, first iteration

 accuracy OK in  95.23 % of wet grid points ( 95.00 % required)

 ** Warning          : no output requested
 Time of computation ->  20110826.162000      in sec:     145200.
       not possible to compute accuracy, first iteration

 accuracy OK in  94.71 % of wet grid points ( 95.00 % required)

 accuracy OK in  94.71 % of wet grid points ( 95.00 % required)

 accuracy OK in  96.88 % of wet grid points ( 95.00 % required)

 ** Warning          : no output requested
 Time of computation ->  20110826.164000      in sec:     146400.
       not possible to compute accuracy, first iteration

 accuracy OK in  94.60 % of wet grid points ( 95.00 % required)

 accuracy OK in  94.60 % of wet grid points ( 95.00 % required)

 accuracy OK in  96.09 % of wet grid points ( 95.00 % required)

 ** Warning          : no output requested
 Time of computation ->  20110826.170000      in sec:     147600.
       not possible to compute accuracy, first iteration

 accuracy OK in  95.13 % of wet grid points ( 95.00 % required)

 ** Warning          : no output requested
 Time of computation ->  20110826.172000      in sec:     148800.
       not possible to compute accuracy, first iteration

 accuracy OK in  96.24 % of wet grid points ( 95.00 % required)

 ** Warning          : no output requested
 Time of computation ->  20110826.174000      in sec:     150000.
       not possible to compute accuracy, first iteration

 accuracy OK in  95.26 % of wet grid points ( 95.00 % required)

 ** Warning          : no output requested
 Time of computation ->  20110826.180000      in sec:     151200.
       not possible to compute accuracy, first iteration

 accuracy OK in  94.64 % of wet grid points ( 95.00 % required)

 accuracy OK in  94.64 % of wet grid points ( 95.00 % required)

 accuracy OK in  96.05 % of wet grid points ( 95.00 % required)

 ** Warning          : no output requested
 Time of computation ->  20110826.182000      in sec:     152400.
       not possible to compute accuracy, first iteration

 accuracy OK in  94.82 % of wet grid points ( 95.00 % required)

 accuracy OK in  94.82 % of wet grid points ( 95.00 % required)

 accuracy OK in  95.70 % of wet grid points ( 95.00 % required)

 ** Warning          : no output requested
 Time of computation ->  20110826.184000      in sec:     153600.
       not possible to compute accuracy, first iteration

 accuracy OK in  95.78 % of wet grid points ( 95.00 % required)

 ** Warning          : no output requested
 Time of computation ->  20110826.190000      in sec:     154800.
       not possible to compute accuracy, first iteration

 accuracy OK in  96.03 % of wet grid points ( 95.00 % required)

 ** Warning          : no output requested
 Time of computation ->  20110826.192000      in sec:     156000.
       not possible to compute accuracy, first iteration

 accuracy OK in  96.03 % of wet grid points ( 95.00 % required)

 ** Warning          : no output requested
 Time of computation ->  20110826.194000      in sec:     157200.
       not possible to compute accuracy, first iteration

 accuracy OK in  96.46 % of wet grid points ( 95.00 % required)

 ** Warning          : no output requested
 Time of computation ->  20110826.200000      in sec:     158400.
       not possible to compute accuracy, first iteration

 accuracy OK in  96.28 % of wet grid points ( 95.00 % required)

 ** Warning          : no output requested
 Time of computation ->  20110826.202000      in sec:     159600.
       not possible to compute accuracy, first iteration

 accuracy OK in  96.89 % of wet grid points ( 95.00 % required)

 ** Warning          : no output requested
 Time of computation ->  20110826.204000      in sec:     160800.
       not possible to compute accuracy, first iteration

 accuracy OK in  96.71 % of wet grid points ( 95.00 % required)

 ** Warning          : no output requested
 Time of computation ->  20110826.210000      in sec:     162000.
       not possible to compute accuracy, first iteration

 accuracy OK in  97.06 % of wet grid points ( 95.00 % required)

 ** Warning          : no output requested
 Time of computation ->  20110826.212000      in sec:     163200.
       not possible to compute accuracy, first iteration

 accuracy OK in  96.88 % of wet grid points ( 95.00 % required)

 ** Warning          : no output requested
 Time of computation ->  20110826.214000      in sec:     164400.
       not possible to compute accuracy, first iteration

 accuracy OK in  96.78 % of wet grid points ( 95.00 % required)

 ** Warning          : no output requested
 Time of computation ->  20110826.220000      in sec:     165600.
       not possible to compute accuracy, first iteration

 accuracy OK in  96.07 % of wet grid points ( 95.00 % required)

 ** Warning          : no output requested
 Time of computation ->  20110826.222000      in sec:     166800.
       not possible to compute accuracy, first iteration

 accuracy OK in  96.78 % of wet grid points ( 95.00 % required)

 ** Warning          : no output requested
 Time of computation ->  20110826.224000      in sec:     168000.
       not possible to compute accuracy, first iteration

 accuracy OK in  97.13 % of wet grid points ( 95.00 % required)

 ** Warning          : no output requested
 Time of computation ->  20110826.230000      in sec:     169200.
       not possible to compute accuracy, first iteration

 accuracy OK in  97.22 % of wet grid points ( 95.00 % required)

 ** Warning          : no output requested
 Time of computation ->  20110826.232000      in sec:     170400.
       not possible to compute accuracy, first iteration

 accuracy OK in  96.59 % of wet grid points ( 95.00 % required)

 ** Warning          : no output requested
 Time of computation ->  20110826.234000      in sec:     171600.
       not possible to compute accuracy, first iteration

 accuracy OK in  96.86 % of wet grid points ( 95.00 % required)

 ** Warning          : no output requested
 Time of computation ->  20110827.000000      in sec:     172800.
       not possible to compute accuracy, first iteration

 accuracy OK in  97.03 % of wet grid points ( 95.00 % required)

 ** Warning          : no output requested
 Time of computation ->  20110827.002000      in sec:     174000.
       not possible to compute accuracy, first iteration

 accuracy OK in  96.49 % of wet grid points ( 95.00 % required)

 ** Warning          : no output requested
 Time of computation ->  20110827.004000      in sec:     175200.
       not possible to compute accuracy, first iteration

 accuracy OK in  96.03 % of wet grid points ( 95.00 % required)

 ** Warning          : no output requested
 Time of computation ->  20110827.010000      in sec:     176400.
       not possible to compute accuracy, first iteration

 accuracy OK in  95.93 % of wet grid points ( 95.00 % required)

 ** Warning          : no output requested
 Time of computation ->  20110827.012000      in sec:     177600.
       not possible to compute accuracy, first iteration

 accuracy OK in  95.39 % of wet grid points ( 95.00 % required)

 ** Warning          : no output requested
 Time of computation ->  20110827.014000      in sec:     178800.
       not possible to compute accuracy, first iteration

 accuracy OK in  95.11 % of wet grid points ( 95.00 % required)

 ** Warning          : no output requested
 Time of computation ->  20110827.020000      in sec:     180000.
       not possible to compute accuracy, first iteration

 accuracy OK in  94.56 % of wet grid points ( 95.00 % required)

 accuracy OK in  94.56 % of wet grid points ( 95.00 % required)

 accuracy OK in  95.83 % of wet grid points ( 95.00 % required)

 ** Warning          : no output requested
 Time of computation ->  20110827.022000      in sec:     181200.
       not possible to compute accuracy, first iteration

 accuracy OK in  93.37 % of wet grid points ( 95.00 % required)

 accuracy OK in  93.37 % of wet grid points ( 95.00 % required)

 accuracy OK in  95.46 % of wet grid points ( 95.00 % required)

 ** Warning          : no output requested
 Time of computation ->  20110827.024000      in sec:     182400.
       not possible to compute accuracy, first iteration

 accuracy OK in  94.06 % of wet grid points ( 95.00 % required)

 accuracy OK in  94.06 % of wet grid points ( 95.00 % required)

 accuracy OK in  95.89 % of wet grid points ( 95.00 % required)

 ** Warning          : no output requested
 Time of computation ->  20110827.030000      in sec:     183600.
       not possible to compute accuracy, first iteration

 accuracy OK in  93.78 % of wet grid points ( 95.00 % required)

 accuracy OK in  93.78 % of wet grid points ( 95.00 % required)

 accuracy OK in  95.33 % of wet grid points ( 95.00 % required)

 ** Warning          : no output requested
 Time of computation ->  20110827.032000      in sec:     184800.
       not possible to compute accuracy, first iteration

 accuracy OK in  93.03 % of wet grid points ( 95.00 % required)

 accuracy OK in  93.03 % of wet grid points ( 95.00 % required)

 accuracy OK in  94.96 % of wet grid points ( 95.00 % required)

 accuracy OK in  97.07 % of wet grid points ( 95.00 % required)

 ** Warning          : no output requested
 Time of computation ->  20110827.034000      in sec:     186000.
       not possible to compute accuracy, first iteration

 accuracy OK in  94.19 % of wet grid points ( 95.00 % required)

 accuracy OK in  94.19 % of wet grid points ( 95.00 % required)

 accuracy OK in  94.93 % of wet grid points ( 95.00 % required)

 accuracy OK in  97.70 % of wet grid points ( 95.00 % required)

 ** Warning          : no output requested
 Time of computation ->  20110827.040000      in sec:     187200.
       not possible to compute accuracy, first iteration

 accuracy OK in  94.17 % of wet grid points ( 95.00 % required)

 accuracy OK in  94.17 % of wet grid points ( 95.00 % required)

 accuracy OK in  95.93 % of wet grid points ( 95.00 % required)

 ** Warning          : no output requested
 Time of computation ->  20110827.042000      in sec:     188400.
       not possible to compute accuracy, first iteration

 accuracy OK in  93.10 % of wet grid points ( 95.00 % required)

 accuracy OK in  93.10 % of wet grid points ( 95.00 % required)

 accuracy OK in  94.78 % of wet grid points ( 95.00 % required)

 accuracy OK in  97.77 % of wet grid points ( 95.00 % required)

 ** Warning          : no output requested
 Time of computation ->  20110827.044000      in sec:     189600.
       not possible to compute accuracy, first iteration

 accuracy OK in  93.38 % of wet grid points ( 95.00 % required)

 accuracy OK in  93.38 % of wet grid points ( 95.00 % required)

 accuracy OK in  94.31 % of wet grid points ( 95.00 % required)

 accuracy OK in  97.95 % of wet grid points ( 95.00 % required)

 ** Warning          : no output requested
 Time of computation ->  20110827.050000      in sec:     190800.
       not possible to compute accuracy, first iteration

 accuracy OK in  93.16 % of wet grid points ( 95.00 % required)

 accuracy OK in  93.16 % of wet grid points ( 95.00 % required)

 accuracy OK in  94.10 % of wet grid points ( 95.00 % required)

 accuracy OK in  97.10 % of wet grid points ( 95.00 % required)

 ** Warning          : no output requested
 Time of computation ->  20110827.052000      in sec:     192000.
       not possible to compute accuracy, first iteration

 accuracy OK in  93.33 % of wet grid points ( 95.00 % required)

 accuracy OK in  93.33 % of wet grid points ( 95.00 % required)

 accuracy OK in  93.70 % of wet grid points ( 95.00 % required)

 accuracy OK in  97.28 % of wet grid points ( 95.00 % required)

 ** Warning          : no output requested
 Time of computation ->  20110827.054000      in sec:     193200.
       not possible to compute accuracy, first iteration

 accuracy OK in  92.28 % of wet grid points ( 95.00 % required)

 accuracy OK in  92.28 % of wet grid points ( 95.00 % required)

 accuracy OK in  94.16 % of wet grid points ( 95.00 % required)

 accuracy OK in  97.37 % of wet grid points ( 95.00 % required)

 ** Warning          : no output requested
 Time of computation ->  20110827.060000      in sec:     194400.
       not possible to compute accuracy, first iteration

 accuracy OK in  92.65 % of wet grid points ( 95.00 % required)

 accuracy OK in  92.65 % of wet grid points ( 95.00 % required)

 accuracy OK in  93.78 % of wet grid points ( 95.00 % required)

 accuracy OK in  97.36 % of wet grid points ( 95.00 % required)

 ** Warning          : no output requested
 Time of computation ->  20110827.062000      in sec:     195600.
       not possible to compute accuracy, first iteration

 accuracy OK in  91.58 % of wet grid points ( 95.00 % required)

 accuracy OK in  91.58 % of wet grid points ( 95.00 % required)

 accuracy OK in  93.57 % of wet grid points ( 95.00 % required)

 accuracy OK in  96.60 % of wet grid points ( 95.00 % required)

 ** Warning          : no output requested
 Time of computation ->  20110827.064000      in sec:     196800.
       not possible to compute accuracy, first iteration

 accuracy OK in  92.04 % of wet grid points ( 95.00 % required)

 accuracy OK in  92.04 % of wet grid points ( 95.00 % required)

 accuracy OK in  93.09 % of wet grid points ( 95.00 % required)

 accuracy OK in  96.50 % of wet grid points ( 95.00 % required)

 ** Warning          : no output requested
 Time of computation ->  20110827.070000      in sec:     198000.
       not possible to compute accuracy, first iteration

 accuracy OK in  90.41 % of wet grid points ( 95.00 % required)

 accuracy OK in  90.41 % of wet grid points ( 95.00 % required)

 accuracy OK in  93.17 % of wet grid points ( 95.00 % required)

 accuracy OK in  96.78 % of wet grid points ( 95.00 % required)

 ** Warning          : no output requested
 Time of computation ->  20110827.072000      in sec:     199200.
       not possible to compute accuracy, first iteration

 accuracy OK in  91.16 % of wet grid points ( 95.00 % required)

 accuracy OK in  91.16 % of wet grid points ( 95.00 % required)

 accuracy OK in  92.41 % of wet grid points ( 95.00 % required)

 accuracy OK in  95.97 % of wet grid points ( 95.00 % required)

 ** Warning          : no output requested
 Time of computation ->  20110827.074000      in sec:     200400.
       not possible to compute accuracy, first iteration

 accuracy OK in  89.56 % of wet grid points ( 95.00 % required)

 accuracy OK in  89.56 % of wet grid points ( 95.00 % required)

 accuracy OK in  91.11 % of wet grid points ( 95.00 % required)

 accuracy OK in  96.62 % of wet grid points ( 95.00 % required)

 ** Warning          : no output requested
 Time of computation ->  20110827.080000      in sec:     201600.
       not possible to compute accuracy, first iteration

 accuracy OK in  88.00 % of wet grid points ( 95.00 % required)

 accuracy OK in  88.00 % of wet grid points ( 95.00 % required)

 accuracy OK in  90.15 % of wet grid points ( 95.00 % required)

 accuracy OK in  95.52 % of wet grid points ( 95.00 % required)

 ** Warning          : no output requested
 Time of computation ->  20110827.082000      in sec:     202800.
       not possible to compute accuracy, first iteration

 accuracy OK in  88.12 % of wet grid points ( 95.00 % required)

 accuracy OK in  88.12 % of wet grid points ( 95.00 % required)

 accuracy OK in  89.59 % of wet grid points ( 95.00 % required)

 accuracy OK in  94.41 % of wet grid points ( 95.00 % required)

 accuracy OK in  97.25 % of wet grid points ( 95.00 % required)

 ** Warning          : no output requested
 Time of computation ->  20110827.084000      in sec:     204000.
       not possible to compute accuracy, first iteration

 accuracy OK in  85.28 % of wet grid points ( 95.00 % required)

 accuracy OK in  85.28 % of wet grid points ( 95.00 % required)

 accuracy OK in  87.93 % of wet grid points ( 95.00 % required)

 accuracy OK in  93.14 % of wet grid points ( 95.00 % required)

 accuracy OK in  96.08 % of wet grid points ( 95.00 % required)

 ** Warning          : no output requested
 Time of computation ->  20110827.090000      in sec:     205200.
       not possible to compute accuracy, first iteration

 accuracy OK in  84.18 % of wet grid points ( 95.00 % required)

 accuracy OK in  84.18 % of wet grid points ( 95.00 % required)

 accuracy OK in  87.44 % of wet grid points ( 95.00 % required)

 accuracy OK in  94.17 % of wet grid points ( 95.00 % required)

 accuracy OK in  96.35 % of wet grid points ( 95.00 % required)

 ** Warning          : no output requested
 Time of computation ->  20110827.092000      in sec:     206400.
       not possible to compute accuracy, first iteration

 accuracy OK in  83.80 % of wet grid points ( 95.00 % required)

 accuracy OK in  83.80 % of wet grid points ( 95.00 % required)

 accuracy OK in  86.88 % of wet grid points ( 95.00 % required)

 accuracy OK in  93.94 % of wet grid points ( 95.00 % required)

 accuracy OK in  96.63 % of wet grid points ( 95.00 % required)

 ** Warning          : no output requested
 Time of computation ->  20110827.094000      in sec:     207600.
       not possible to compute accuracy, first iteration

 accuracy OK in  82.99 % of wet grid points ( 95.00 % required)

 accuracy OK in  82.99 % of wet grid points ( 95.00 % required)

 accuracy OK in  86.19 % of wet grid points ( 95.00 % required)

 accuracy OK in  94.10 % of wet grid points ( 95.00 % required)

 accuracy OK in  97.00 % of wet grid points ( 95.00 % required)

 ** Warning          : no output requested
 Time of computation ->  20110827.100000      in sec:     208800.
       not possible to compute accuracy, first iteration

 accuracy OK in  82.40 % of wet grid points ( 95.00 % required)

 accuracy OK in  82.40 % of wet grid points ( 95.00 % required)

 accuracy OK in  85.82 % of wet grid points ( 95.00 % required)

 accuracy OK in  94.77 % of wet grid points ( 95.00 % required)

 accuracy OK in  97.69 % of wet grid points ( 95.00 % required)

 ** Warning          : no output requested
 Time of computation ->  20110827.102000      in sec:     210000.
       not possible to compute accuracy, first iteration

 accuracy OK in  81.46 % of wet grid points ( 95.00 % required)

 accuracy OK in  81.46 % of wet grid points ( 95.00 % required)

 accuracy OK in  85.82 % of wet grid points ( 95.00 % required)

 accuracy OK in  94.84 % of wet grid points ( 95.00 % required)

 accuracy OK in  97.07 % of wet grid points ( 95.00 % required)

 ** Warning          : no output requested
 Time of computation ->  20110827.104000      in sec:     211200.
       not possible to compute accuracy, first iteration

 accuracy OK in  82.02 % of wet grid points ( 95.00 % required)

 accuracy OK in  82.02 % of wet grid points ( 95.00 % required)

 accuracy OK in  85.98 % of wet grid points ( 95.00 % required)

 accuracy OK in  94.11 % of wet grid points ( 95.00 % required)

 accuracy OK in  97.06 % of wet grid points ( 95.00 % required)

 ** Warning          : no output requested
 Time of computation ->  20110827.110000      in sec:     212400.
       not possible to compute accuracy, first iteration

 accuracy OK in  81.74 % of wet grid points ( 95.00 % required)

 accuracy OK in  81.74 % of wet grid points ( 95.00 % required)

 accuracy OK in  86.23 % of wet grid points ( 95.00 % required)

 accuracy OK in  93.47 % of wet grid points ( 95.00 % required)

 accuracy OK in  97.35 % of wet grid points ( 95.00 % required)

 ** Warning          : no output requested
 Time of computation ->  20110827.112000      in sec:     213600.
       not possible to compute accuracy, first iteration

 accuracy OK in  81.51 % of wet grid points ( 95.00 % required)

 accuracy OK in  81.51 % of wet grid points ( 95.00 % required)

 accuracy OK in  85.21 % of wet grid points ( 95.00 % required)

 accuracy OK in  93.74 % of wet grid points ( 95.00 % required)

 accuracy OK in  97.64 % of wet grid points ( 95.00 % required)

 ** Warning          : no output requested
 Time of computation ->  20110827.114000      in sec:     214800.
       not possible to compute accuracy, first iteration

 accuracy OK in  81.49 % of wet grid points ( 95.00 % required)

 accuracy OK in  81.49 % of wet grid points ( 95.00 % required)

 accuracy OK in  84.80 % of wet grid points ( 95.00 % required)

 accuracy OK in  93.90 % of wet grid points ( 95.00 % required)

 accuracy OK in  97.11 % of wet grid points ( 95.00 % required)

 ** Warning          : no output requested
 Time of computation ->  20110827.120000      in sec:     216000.
       not possible to compute accuracy, first iteration

 accuracy OK in  79.44 % of wet grid points ( 95.00 % required)

 accuracy OK in  79.44 % of wet grid points ( 95.00 % required)

 accuracy OK in  83.41 % of wet grid points ( 95.00 % required)

 accuracy OK in  92.49 % of wet grid points ( 95.00 % required)

 accuracy OK in  95.93 % of wet grid points ( 95.00 % required)

 ** Warning          : no output requested
 Time of computation ->  20110827.122000      in sec:     217200.
       not possible to compute accuracy, first iteration

 accuracy OK in  76.60 % of wet grid points ( 95.00 % required)

 accuracy OK in  76.60 % of wet grid points ( 95.00 % required)

 accuracy OK in  79.42 % of wet grid points ( 95.00 % required)

 accuracy OK in  90.91 % of wet grid points ( 95.00 % required)

 accuracy OK in  95.20 % of wet grid points ( 95.00 % required)

 ** Warning          : no output requested
 Time of computation ->  20110827.124000      in sec:     218400.
       not possible to compute accuracy, first iteration

 accuracy OK in  73.51 % of wet grid points ( 95.00 % required)

 accuracy OK in  73.51 % of wet grid points ( 95.00 % required)

 accuracy OK in  77.92 % of wet grid points ( 95.00 % required)

 accuracy OK in  91.07 % of wet grid points ( 95.00 % required)

 accuracy OK in  95.80 % of wet grid points ( 95.00 % required)

 ** Warning          : no output requested
 Time of computation ->  20110827.130000      in sec:     219600.
       not possible to compute accuracy, first iteration

 accuracy OK in  71.60 % of wet grid points ( 95.00 % required)

 accuracy OK in  71.60 % of wet grid points ( 95.00 % required)

 accuracy OK in  75.72 % of wet grid points ( 95.00 % required)

 accuracy OK in  90.50 % of wet grid points ( 95.00 % required)

 accuracy OK in  96.31 % of wet grid points ( 95.00 % required)

 ** Warning          : no output requested
 Time of computation ->  20110827.132000      in sec:     220800.
       not possible to compute accuracy, first iteration

 accuracy OK in  69.38 % of wet grid points ( 95.00 % required)

 accuracy OK in  69.38 % of wet grid points ( 95.00 % required)

 accuracy OK in  75.40 % of wet grid points ( 95.00 % required)

 accuracy OK in  89.76 % of wet grid points ( 95.00 % required)

 accuracy OK in  95.99 % of wet grid points ( 95.00 % required)

 ** Warning          : no output requested
 Time of computation ->  20110827.134000      in sec:     222000.
       not possible to compute accuracy, first iteration

 accuracy OK in  64.84 % of wet grid points ( 95.00 % required)

 accuracy OK in  64.84 % of wet grid points ( 95.00 % required)

 accuracy OK in  71.28 % of wet grid points ( 95.00 % required)

 accuracy OK in  86.59 % of wet grid points ( 95.00 % required)

 accuracy OK in  94.83 % of wet grid points ( 95.00 % required)

 accuracy OK in  96.73 % of wet grid points ( 95.00 % required)

 ** Warning          : no output requested
 Time of computation ->  20110827.140000      in sec:     223200.
       not possible to compute accuracy, first iteration

 accuracy OK in  62.61 % of wet grid points ( 95.00 % required)

 accuracy OK in  62.61 % of wet grid points ( 95.00 % required)

 accuracy OK in  68.49 % of wet grid points ( 95.00 % required)

 accuracy OK in  83.20 % of wet grid points ( 95.00 % required)

 accuracy OK in  94.33 % of wet grid points ( 95.00 % required)

 accuracy OK in  97.17 % of wet grid points ( 95.00 % required)

 ** Warning          : no output requested
 Time of computation ->  20110827.142000      in sec:     224400.
       not possible to compute accuracy, first iteration

 accuracy OK in  58.06 % of wet grid points ( 95.00 % required)

 accuracy OK in  58.06 % of wet grid points ( 95.00 % required)

 accuracy OK in  63.81 % of wet grid points ( 95.00 % required)

 accuracy OK in  82.22 % of wet grid points ( 95.00 % required)

 accuracy OK in  92.47 % of wet grid points ( 95.00 % required)

 accuracy OK in  95.61 % of wet grid points ( 95.00 % required)

 ** Warning          : no output requested
 Time of computation ->  20110827.144000      in sec:     225600.
       not possible to compute accuracy, first iteration

 accuracy OK in  58.41 % of wet grid points ( 95.00 % required)

 accuracy OK in  58.41 % of wet grid points ( 95.00 % required)

 accuracy OK in  63.80 % of wet grid points ( 95.00 % required)

 accuracy OK in  77.60 % of wet grid points ( 95.00 % required)

 accuracy OK in  91.50 % of wet grid points ( 95.00 % required)

 accuracy OK in  95.44 % of wet grid points ( 95.00 % required)

 ** Warning          : no output requested
 Time of computation ->  20110827.150000      in sec:     226800.
       not possible to compute accuracy, first iteration

 accuracy OK in  57.72 % of wet grid points ( 95.00 % required)

 accuracy OK in  57.72 % of wet grid points ( 95.00 % required)

 accuracy OK in  63.07 % of wet grid points ( 95.00 % required)

 accuracy OK in  77.89 % of wet grid points ( 95.00 % required)

 accuracy OK in  89.82 % of wet grid points ( 95.00 % required)

 accuracy OK in  94.24 % of wet grid points ( 95.00 % required)

 accuracy OK in  96.10 % of wet grid points ( 95.00 % required)

 ** Warning          : no output requested
 Time of computation ->  20110827.152000      in sec:     228000.
       not possible to compute accuracy, first iteration

 accuracy OK in  57.26 % of wet grid points ( 95.00 % required)

 accuracy OK in  57.26 % of wet grid points ( 95.00 % required)

 accuracy OK in  61.66 % of wet grid points ( 95.00 % required)

 accuracy OK in  76.79 % of wet grid points ( 95.00 % required)

 accuracy OK in  89.88 % of wet grid points ( 95.00 % required)

 accuracy OK in  95.10 % of wet grid points ( 95.00 % required)

 ** Warning          : no output requested
 Time of computation ->  20110827.154000      in sec:     229200.
       not possible to compute accuracy, first iteration

 accuracy OK in  56.36 % of wet grid points ( 95.00 % required)

 accuracy OK in  56.36 % of wet grid points ( 95.00 % required)

 accuracy OK in  60.35 % of wet grid points ( 95.00 % required)

 accuracy OK in  77.57 % of wet grid points ( 95.00 % required)

 accuracy OK in  91.09 % of wet grid points ( 95.00 % required)

 accuracy OK in  95.09 % of wet grid points ( 95.00 % required)

 ** Warning          : no output requested
 Time of computation ->  20110827.160000      in sec:     230400.
       not possible to compute accuracy, first iteration

 accuracy OK in  57.70 % of wet grid points ( 95.00 % required)

 accuracy OK in  57.70 % of wet grid points ( 95.00 % required)

 accuracy OK in  59.43 % of wet grid points ( 95.00 % required)

 accuracy OK in  77.27 % of wet grid points ( 95.00 % required)

 accuracy OK in  90.22 % of wet grid points ( 95.00 % required)

 accuracy OK in  93.79 % of wet grid points ( 95.00 % required)

 accuracy OK in  95.01 % of wet grid points ( 95.00 % required)

 ** Warning          : no output requested
 Time of computation ->  20110827.162000      in sec:     231600.
       not possible to compute accuracy, first iteration

 accuracy OK in  58.53 % of wet grid points ( 95.00 % required)

 accuracy OK in  58.53 % of wet grid points ( 95.00 % required)

 accuracy OK in  60.55 % of wet grid points ( 95.00 % required)

 accuracy OK in  80.33 % of wet grid points ( 95.00 % required)

 accuracy OK in  88.30 % of wet grid points ( 95.00 % required)

 accuracy OK in  92.13 % of wet grid points ( 95.00 % required)

 accuracy OK in  93.55 % of wet grid points ( 95.00 % required)

 accuracy OK in  94.86 % of wet grid points ( 95.00 % required)

 accuracy OK in  95.97 % of wet grid points ( 95.00 % required)

 ** Warning          : no output requested
 Time of computation ->  20110827.164000      in sec:     232800.
       not possible to compute accuracy, first iteration

 accuracy OK in  59.20 % of wet grid points ( 95.00 % required)

 accuracy OK in  59.20 % of wet grid points ( 95.00 % required)

 accuracy OK in  62.20 % of wet grid points ( 95.00 % required)

 accuracy OK in  80.00 % of wet grid points ( 95.00 % required)

 accuracy OK in  88.50 % of wet grid points ( 95.00 % required)

 accuracy OK in  91.90 % of wet grid points ( 95.00 % required)

 accuracy OK in  93.50 % of wet grid points ( 95.00 % required)

 accuracy OK in  95.40 % of wet grid points ( 95.00 % required)

 ** Warning          : no output requested
 Time of computation ->  20110827.170000      in sec:     234000.
       not possible to compute accuracy, first iteration

 accuracy OK in  61.86 % of wet grid points ( 95.00 % required)

 accuracy OK in  61.86 % of wet grid points ( 95.00 % required)

 accuracy OK in  64.85 % of wet grid points ( 95.00 % required)

 accuracy OK in  81.18 % of wet grid points ( 95.00 % required)

 accuracy OK in  89.65 % of wet grid points ( 95.00 % required)

 accuracy OK in  92.44 % of wet grid points ( 95.00 % required)

 accuracy OK in  94.33 % of wet grid points ( 95.00 % required)

 accuracy OK in  94.93 % of wet grid points ( 95.00 % required)

 accuracy OK in  96.82 % of wet grid points ( 95.00 % required)

 ** Warning          : no output requested
 Time of computation ->  20110827.172000      in sec:     235200.
       not possible to compute accuracy, first iteration

 accuracy OK in  63.87 % of wet grid points ( 95.00 % required)

 accuracy OK in  63.87 % of wet grid points ( 95.00 % required)

 accuracy OK in  66.64 % of wet grid points ( 95.00 % required)

 accuracy OK in  80.10 % of wet grid points ( 95.00 % required)

 accuracy OK in  88.42 % of wet grid points ( 95.00 % required)

 accuracy OK in  91.79 % of wet grid points ( 95.00 % required)

 accuracy OK in  94.36 % of wet grid points ( 95.00 % required)

 accuracy OK in  96.74 % of wet grid points ( 95.00 % required)

 ** Warning          : no output requested
 Time of computation ->  20110827.174000      in sec:     236400.
       not possible to compute accuracy, first iteration

 accuracy OK in  62.04 % of wet grid points ( 95.00 % required)

 accuracy OK in  62.04 % of wet grid points ( 95.00 % required)

 accuracy OK in  67.16 % of wet grid points ( 95.00 % required)

 accuracy OK in  81.27 % of wet grid points ( 95.00 % required)

 accuracy OK in  88.86 % of wet grid points ( 95.00 % required)

 accuracy OK in  92.21 % of wet grid points ( 95.00 % required)

 accuracy OK in  94.19 % of wet grid points ( 95.00 % required)

 accuracy OK in  95.57 % of wet grid points ( 95.00 % required)

 ** Warning          : no output requested
 Time of computation ->  20110827.180000      in sec:     237600.
       not possible to compute accuracy, first iteration

 accuracy OK in  61.84 % of wet grid points ( 95.00 % required)

 accuracy OK in  61.84 % of wet grid points ( 95.00 % required)

 accuracy OK in  69.28 % of wet grid points ( 95.00 % required)

 accuracy OK in  83.76 % of wet grid points ( 95.00 % required)

 accuracy OK in  90.02 % of wet grid points ( 95.00 % required)

 accuracy OK in  92.37 % of wet grid points ( 95.00 % required)

 accuracy OK in  95.21 % of wet grid points ( 95.00 % required)

 ** Warning          : no output requested
 Time of computation ->  20110827.182000      in sec:     238800.
       not possible to compute accuracy, first iteration

 accuracy OK in  63.93 % of wet grid points ( 95.00 % required)

 accuracy OK in  63.93 % of wet grid points ( 95.00 % required)

 accuracy OK in  69.93 % of wet grid points ( 95.00 % required)

 accuracy OK in  84.14 % of wet grid points ( 95.00 % required)

 accuracy OK in  91.11 % of wet grid points ( 95.00 % required)

 accuracy OK in  94.69 % of wet grid points ( 95.00 % required)

 accuracy OK in  96.52 % of wet grid points ( 95.00 % required)

 ** Warning          : no output requested
 Time of computation ->  20110827.184000      in sec:     240000.
       not possible to compute accuracy, first iteration

 accuracy OK in  64.35 % of wet grid points ( 95.00 % required)

 accuracy OK in  64.35 % of wet grid points ( 95.00 % required)

 accuracy OK in  70.46 % of wet grid points ( 95.00 % required)

 accuracy OK in  87.10 % of wet grid points ( 95.00 % required)

 accuracy OK in  93.70 % of wet grid points ( 95.00 % required)

 accuracy OK in  96.66 % of wet grid points ( 95.00 % required)

 ** Warning          : no output requested
 Time of computation ->  20110827.190000      in sec:     241200.
       not possible to compute accuracy, first iteration

 accuracy OK in  67.27 % of wet grid points ( 95.00 % required)

 accuracy OK in  67.27 % of wet grid points ( 95.00 % required)

 accuracy OK in  73.04 % of wet grid points ( 95.00 % required)

 accuracy OK in  87.33 % of wet grid points ( 95.00 % required)

 accuracy OK in  94.14 % of wet grid points ( 95.00 % required)

 accuracy OK in  96.79 % of wet grid points ( 95.00 % required)

 ** Warning          : no output requested
 Time of computation ->  20110827.192000      in sec:     242400.
       not possible to compute accuracy, first iteration

 accuracy OK in  66.83 % of wet grid points ( 95.00 % required)

 accuracy OK in  66.83 % of wet grid points ( 95.00 % required)

 accuracy OK in  72.03 % of wet grid points ( 95.00 % required)

 accuracy OK in  85.04 % of wet grid points ( 95.00 % required)

 accuracy OK in  93.13 % of wet grid points ( 95.00 % required)

 accuracy OK in  95.36 % of wet grid points ( 95.00 % required)

 ** Warning          : no output requested
 Time of computation ->  20110827.194000      in sec:     243600.
       not possible to compute accuracy, first iteration

 accuracy OK in  63.53 % of wet grid points ( 95.00 % required)

 accuracy OK in  63.53 % of wet grid points ( 95.00 % required)

 accuracy OK in  68.06 % of wet grid points ( 95.00 % required)

 accuracy OK in  82.00 % of wet grid points ( 95.00 % required)

 accuracy OK in  92.13 % of wet grid points ( 95.00 % required)

 accuracy OK in  95.66 % of wet grid points ( 95.00 % required)

 ** Warning          : no output requested
 Time of computation ->  20110827.200000      in sec:     244800.
       not possible to compute accuracy, first iteration

 accuracy OK in  60.76 % of wet grid points ( 95.00 % required)

 accuracy OK in  60.76 % of wet grid points ( 95.00 % required)

 accuracy OK in  64.27 % of wet grid points ( 95.00 % required)

 accuracy OK in  78.94 % of wet grid points ( 95.00 % required)

 accuracy OK in  90.55 % of wet grid points ( 95.00 % required)

 accuracy OK in  95.59 % of wet grid points ( 95.00 % required)

 ** Warning          : no output requested
 Time of computation ->  20110827.202000      in sec:     246000.
       not possible to compute accuracy, first iteration

 accuracy OK in  59.92 % of wet grid points ( 95.00 % required)

 accuracy OK in  59.92 % of wet grid points ( 95.00 % required)

 accuracy OK in  63.65 % of wet grid points ( 95.00 % required)

 accuracy OK in  77.16 % of wet grid points ( 95.00 % required)

 accuracy OK in  90.32 % of wet grid points ( 95.00 % required)

 accuracy OK in  96.36 % of wet grid points ( 95.00 % required)

 ** Warning          : no output requested
 Time of computation ->  20110827.204000      in sec:     247200.
       not possible to compute accuracy, first iteration

 accuracy OK in  58.79 % of wet grid points ( 95.00 % required)

 accuracy OK in  58.79 % of wet grid points ( 95.00 % required)

 accuracy OK in  62.32 % of wet grid points ( 95.00 % required)

 accuracy OK in  75.91 % of wet grid points ( 95.00 % required)

 accuracy OK in  91.71 % of wet grid points ( 95.00 % required)

 accuracy OK in  96.65 % of wet grid points ( 95.00 % required)

 ** Warning          : no output requested
 Time of computation ->  20110827.210000      in sec:     248400.
       not possible to compute accuracy, first iteration

 accuracy OK in  59.56 % of wet grid points ( 95.00 % required)

 accuracy OK in  59.56 % of wet grid points ( 95.00 % required)

 accuracy OK in  61.33 % of wet grid points ( 95.00 % required)

 accuracy OK in  79.12 % of wet grid points ( 95.00 % required)

 accuracy OK in  92.16 % of wet grid points ( 95.00 % required)

 accuracy OK in  94.89 % of wet grid points ( 95.00 % required)

 accuracy OK in  96.66 % of wet grid points ( 95.00 % required)

 ** Warning          : no output requested
 Time of computation ->  20110827.212000      in sec:     249600.
       not possible to compute accuracy, first iteration

 accuracy OK in  61.84 % of wet grid points ( 95.00 % required)

 accuracy OK in  61.84 % of wet grid points ( 95.00 % required)

 accuracy OK in  64.05 % of wet grid points ( 95.00 % required)

 accuracy OK in  83.57 % of wet grid points ( 95.00 % required)

 accuracy OK in  91.26 % of wet grid points ( 95.00 % required)

 accuracy OK in  93.64 % of wet grid points ( 95.00 % required)

 accuracy OK in  95.15 % of wet grid points ( 95.00 % required)

 ** Warning          : no output requested
 Time of computation ->  20110827.214000      in sec:     250800.
       not possible to compute accuracy, first iteration

 accuracy OK in  62.23 % of wet grid points ( 95.00 % required)

 accuracy OK in  62.23 % of wet grid points ( 95.00 % required)

 accuracy OK in  65.41 % of wet grid points ( 95.00 % required)

 accuracy OK in  84.74 % of wet grid points ( 95.00 % required)

 accuracy OK in  89.41 % of wet grid points ( 95.00 % required)

 accuracy OK in  91.97 % of wet grid points ( 95.00 % required)

 accuracy OK in  93.30 % of wet grid points ( 95.00 % required)

 accuracy OK in  93.65 % of wet grid points ( 95.00 % required)

 accuracy OK in  93.91 % of wet grid points ( 95.00 % required)

 accuracy OK in  94.53 % of wet grid points ( 95.00 % required)

 accuracy OK in  94.71 % of wet grid points ( 95.00 % required)

 accuracy OK in  95.42 % of wet grid points ( 95.00 % required)

 ** Warning          : no output requested
 Time of computation ->  20110827.220000      in sec:     252000.
       not possible to compute accuracy, first iteration

 accuracy OK in  64.11 % of wet grid points ( 95.00 % required)

 accuracy OK in  64.11 % of wet grid points ( 95.00 % required)

 accuracy OK in  68.71 % of wet grid points ( 95.00 % required)

 accuracy OK in  85.86 % of wet grid points ( 95.00 % required)

 accuracy OK in  90.28 % of wet grid points ( 95.00 % required)

 accuracy OK in  92.31 % of wet grid points ( 95.00 % required)

 accuracy OK in  93.11 % of wet grid points ( 95.00 % required)

 accuracy OK in  93.99 % of wet grid points ( 95.00 % required)

 accuracy OK in  95.05 % of wet grid points ( 95.00 % required)

 ** Warning          : no output requested
 Time of computation ->  20110827.222000      in sec:     253200.
       not possible to compute accuracy, first iteration

 accuracy OK in  68.23 % of wet grid points ( 95.00 % required)

 accuracy OK in  68.23 % of wet grid points ( 95.00 % required)

 accuracy OK in  74.76 % of wet grid points ( 95.00 % required)

 accuracy OK in  88.62 % of wet grid points ( 95.00 % required)

 accuracy OK in  92.50 % of wet grid points ( 95.00 % required)

 accuracy OK in  94.53 % of wet grid points ( 95.00 % required)

 accuracy OK in  95.86 % of wet grid points ( 95.00 % required)

 ** Warning          : no output requested
 Time of computation ->  20110827.224000      in sec:     254400.
       not possible to compute accuracy, first iteration

 accuracy OK in  73.77 % of wet grid points ( 95.00 % required)

 accuracy OK in  73.77 % of wet grid points ( 95.00 % required)

 accuracy OK in  80.02 % of wet grid points ( 95.00 % required)

 accuracy OK in  91.64 % of wet grid points ( 95.00 % required)

 accuracy OK in  94.99 % of wet grid points ( 95.00 % required)

 accuracy OK in  96.84 % of wet grid points ( 95.00 % required)

 ** Warning          : no output requested
 Time of computation ->  20110827.230000      in sec:     255600.
       not possible to compute accuracy, first iteration

 accuracy OK in  77.57 % of wet grid points ( 95.00 % required)

 accuracy OK in  77.57 % of wet grid points ( 95.00 % required)

 accuracy OK in  83.49 % of wet grid points ( 95.00 % required)

 accuracy OK in  94.00 % of wet grid points ( 95.00 % required)

 accuracy OK in  96.82 % of wet grid points ( 95.00 % required)

 ** Warning          : no output requested
 Time of computation ->  20110827.232000      in sec:     256800.
       not possible to compute accuracy, first iteration

 accuracy OK in  79.76 % of wet grid points ( 95.00 % required)

 accuracy OK in  79.76 % of wet grid points ( 95.00 % required)

 accuracy OK in  84.62 % of wet grid points ( 95.00 % required)

 accuracy OK in  95.14 % of wet grid points ( 95.00 % required)

 ** Warning          : no output requested
 Time of computation ->  20110827.234000      in sec:     258000.
       not possible to compute accuracy, first iteration

 accuracy OK in  80.54 % of wet grid points ( 95.00 % required)

 accuracy OK in  80.54 % of wet grid points ( 95.00 % required)

 accuracy OK in  85.49 % of wet grid points ( 95.00 % required)

 accuracy OK in  94.96 % of wet grid points ( 95.00 % required)

 accuracy OK in  97.88 % of wet grid points ( 95.00 % required)

 ** Warning          : no output requested
 Time of computation ->  20110828.000000      in sec:     259200.
       not possible to compute accuracy, first iteration

 accuracy OK in  82.73 % of wet grid points ( 95.00 % required)

 accuracy OK in  82.73 % of wet grid points ( 95.00 % required)

 accuracy OK in  87.81 % of wet grid points ( 95.00 % required)

 accuracy OK in  96.71 % of wet grid points ( 95.00 % required)

 ** Warning          : no output requested
 Time of computation ->  20110828.002000      in sec:     260400.
       not possible to compute accuracy, first iteration

 accuracy OK in  82.14 % of wet grid points ( 95.00 % required)

 accuracy OK in  82.14 % of wet grid points ( 95.00 % required)

 accuracy OK in  87.03 % of wet grid points ( 95.00 % required)

 accuracy OK in  96.98 % of wet grid points ( 95.00 % required)

 ** Warning          : no output requested
 Time of computation ->  20110828.004000      in sec:     261600.
       not possible to compute accuracy, first iteration

 accuracy OK in  83.77 % of wet grid points ( 95.00 % required)

 accuracy OK in  83.77 % of wet grid points ( 95.00 % required)

 accuracy OK in  88.77 % of wet grid points ( 95.00 % required)

 accuracy OK in  97.24 % of wet grid points ( 95.00 % required)

 ** Warning          : no output requested
 Time of computation ->  20110828.010000      in sec:     262800.
       not possible to compute accuracy, first iteration

 accuracy OK in  86.49 % of wet grid points ( 95.00 % required)

 accuracy OK in  86.49 % of wet grid points ( 95.00 % required)

 accuracy OK in  90.96 % of wet grid points ( 95.00 % required)

 accuracy OK in  97.68 % of wet grid points ( 95.00 % required)

 ** Warning          : no output requested
 Time of computation ->  20110828.012000      in sec:     264000.
       not possible to compute accuracy, first iteration

 accuracy OK in  86.55 % of wet grid points ( 95.00 % required)

 accuracy OK in  86.55 % of wet grid points ( 95.00 % required)

 accuracy OK in  91.13 % of wet grid points ( 95.00 % required)

 accuracy OK in  97.67 % of wet grid points ( 95.00 % required)

 ** Warning          : no output requested
 Time of computation ->  20110828.014000      in sec:     265200.
       not possible to compute accuracy, first iteration

 accuracy OK in  88.57 % of wet grid points ( 95.00 % required)

 accuracy OK in  88.57 % of wet grid points ( 95.00 % required)

 accuracy OK in  92.17 % of wet grid points ( 95.00 % required)

 accuracy OK in  98.38 % of wet grid points ( 95.00 % required)

 ** Warning          : no output requested
 Time of computation ->  20110828.020000      in sec:     266400.
       not possible to compute accuracy, first iteration

 accuracy OK in  88.03 % of wet grid points ( 95.00 % required)

 accuracy OK in  88.03 % of wet grid points ( 95.00 % required)

 accuracy OK in  91.72 % of wet grid points ( 95.00 % required)

 accuracy OK in  97.57 % of wet grid points ( 95.00 % required)

 ** Warning          : no output requested
 Time of computation ->  20110828.022000      in sec:     267600.
       not possible to compute accuracy, first iteration

 accuracy OK in  88.85 % of wet grid points ( 95.00 % required)

 accuracy OK in  88.85 % of wet grid points ( 95.00 % required)

 accuracy OK in  92.54 % of wet grid points ( 95.00 % required)

 accuracy OK in  97.67 % of wet grid points ( 95.00 % required)

 ** Warning          : no output requested
 Time of computation ->  20110828.024000      in sec:     268800.
       not possible to compute accuracy, first iteration

 accuracy OK in  88.93 % of wet grid points ( 95.00 % required)

 accuracy OK in  88.93 % of wet grid points ( 95.00 % required)

 accuracy OK in  92.17 % of wet grid points ( 95.00 % required)

 accuracy OK in  97.66 % of wet grid points ( 95.00 % required)

 ** Warning          : no output requested
 Time of computation ->  20110828.030000      in sec:     270000.
       not possible to compute accuracy, first iteration

 accuracy OK in  90.28 % of wet grid points ( 95.00 % required)

 accuracy OK in  90.28 % of wet grid points ( 95.00 % required)

 accuracy OK in  93.43 % of wet grid points ( 95.00 % required)

 accuracy OK in  98.11 % of wet grid points ( 95.00 % required)

 ** Warning          : no output requested
 Time of computation ->  20110828.032000      in sec:     271200.
       not possible to compute accuracy, first iteration

 accuracy OK in  90.73 % of wet grid points ( 95.00 % required)

 accuracy OK in  90.73 % of wet grid points ( 95.00 % required)

 accuracy OK in  93.16 % of wet grid points ( 95.00 % required)

 accuracy OK in  98.02 % of wet grid points ( 95.00 % required)

 ** Warning          : no output requested
 Time of computation ->  20110828.034000      in sec:     272400.
       not possible to compute accuracy, first iteration

 accuracy OK in  92.08 % of wet grid points ( 95.00 % required)

 accuracy OK in  92.08 % of wet grid points ( 95.00 % required)

 accuracy OK in  93.79 % of wet grid points ( 95.00 % required)

 accuracy OK in  98.11 % of wet grid points ( 95.00 % required)

 ** Warning          : no output requested
 Time of computation ->  20110828.040000      in sec:     273600.
       not possible to compute accuracy, first iteration

 accuracy OK in  93.24 % of wet grid points ( 95.00 % required)

 accuracy OK in  93.24 % of wet grid points ( 95.00 % required)

 accuracy OK in  95.59 % of wet grid points ( 95.00 % required)

 ** Warning          : no output requested
 Time of computation ->  20110828.042000      in sec:     274800.
       not possible to compute accuracy, first iteration

 accuracy OK in  95.13 % of wet grid points ( 95.00 % required)

 ** Warning          : no output requested
 Time of computation ->  20110828.044000      in sec:     276000.
       not possible to compute accuracy, first iteration

 accuracy OK in  96.21 % of wet grid points ( 95.00 % required)

 ** Warning          : no output requested
 Time of computation ->  20110828.050000      in sec:     277200.
       not possible to compute accuracy, first iteration

 accuracy OK in  94.59 % of wet grid points ( 95.00 % required)

 accuracy OK in  94.59 % of wet grid points ( 95.00 % required)

 accuracy OK in  97.39 % of wet grid points ( 95.00 % required)

 ** Warning          : no output requested
 Time of computation ->  20110828.052000      in sec:     278400.
       not possible to compute accuracy, first iteration

 accuracy OK in  95.68 % of wet grid points ( 95.00 % required)

 ** Warning          : no output requested
 Time of computation ->  20110828.054000      in sec:     279600.
       not possible to compute accuracy, first iteration

 accuracy OK in  95.59 % of wet grid points ( 95.00 % required)

 ** Warning          : no output requested
 Time of computation ->  20110828.060000      in sec:     280800.
       not possible to compute accuracy, first iteration

 accuracy OK in  95.59 % of wet grid points ( 95.00 % required)

 ** Warning          : no output requested
 Time of computation ->  20110828.062000      in sec:     282000.
       not possible to compute accuracy, first iteration

 accuracy OK in  95.33 % of wet grid points ( 95.00 % required)

 ** Warning          : no output requested
 Time of computation ->  20110828.064000      in sec:     283200.
       not possible to compute accuracy, first iteration

 accuracy OK in  92.92 % of wet grid points ( 95.00 % required)

 accuracy OK in  92.92 % of wet grid points ( 95.00 % required)

 accuracy OK in  96.51 % of wet grid points ( 95.00 % required)

 ** Warning          : no output requested
 Time of computation ->  20110828.070000      in sec:     284400.
       not possible to compute accuracy, first iteration

 accuracy OK in  93.45 % of wet grid points ( 95.00 % required)

 accuracy OK in  93.45 % of wet grid points ( 95.00 % required)

 accuracy OK in  96.15 % of wet grid points ( 95.00 % required)

 ** Warning          : no output requested
 Time of computation ->  20110828.072000      in sec:     285600.
       not possible to compute accuracy, first iteration

 accuracy OK in  92.84 % of wet grid points ( 95.00 % required)

 accuracy OK in  92.84 % of wet grid points ( 95.00 % required)

 accuracy OK in  95.97 % of wet grid points ( 95.00 % required)

 ** Warning          : no output requested
 Time of computation ->  20110828.074000      in sec:     286800.
       not possible to compute accuracy, first iteration

 accuracy OK in  92.57 % of wet grid points ( 95.00 % required)

 accuracy OK in  92.57 % of wet grid points ( 95.00 % required)

 accuracy OK in  96.07 % of wet grid points ( 95.00 % required)

 ** Warning          : no output requested
 Time of computation ->  20110828.080000      in sec:     288000.
       not possible to compute accuracy, first iteration

 accuracy OK in  92.86 % of wet grid points ( 95.00 % required)

 accuracy OK in  92.86 % of wet grid points ( 95.00 % required)

 accuracy OK in  95.63 % of wet grid points ( 95.00 % required)

 ** Warning          : no output requested
 Time of computation ->  20110828.082000      in sec:     289200.
       not possible to compute accuracy, first iteration

 accuracy OK in  92.34 % of wet grid points ( 95.00 % required)

 accuracy OK in  92.34 % of wet grid points ( 95.00 % required)

 accuracy OK in  95.91 % of wet grid points ( 95.00 % required)

 ** Warning          : no output requested
 Time of computation ->  20110828.084000      in sec:     290400.
       not possible to compute accuracy, first iteration

 accuracy OK in  90.66 % of wet grid points ( 95.00 % required)

 accuracy OK in  90.66 % of wet grid points ( 95.00 % required)

 accuracy OK in  95.02 % of wet grid points ( 95.00 % required)

 ** Warning          : no output requested
 Time of computation ->  20110828.090000      in sec:     291600.
       not possible to compute accuracy, first iteration

 accuracy OK in  91.74 % of wet grid points ( 95.00 % required)

 accuracy OK in  91.74 % of wet grid points ( 95.00 % required)

 accuracy OK in  94.40 % of wet grid points ( 95.00 % required)

 accuracy OK in  99.12 % of wet grid points ( 95.00 % required)

 ** Warning          : no output requested
 Time of computation ->  20110828.092000      in sec:     292800.
       not possible to compute accuracy, first iteration

 accuracy OK in  91.48 % of wet grid points ( 95.00 % required)

 accuracy OK in  91.48 % of wet grid points ( 95.00 % required)

 accuracy OK in  94.59 % of wet grid points ( 95.00 % required)

 accuracy OK in  99.29 % of wet grid points ( 95.00 % required)

 ** Warning          : no output requested
 Time of computation ->  20110828.094000      in sec:     294000.
       not possible to compute accuracy, first iteration

 accuracy OK in  92.02 % of wet grid points ( 95.00 % required)

 accuracy OK in  92.02 % of wet grid points ( 95.00 % required)

 accuracy OK in  94.86 % of wet grid points ( 95.00 % required)

 accuracy OK in  99.12 % of wet grid points ( 95.00 % required)

 ** Warning          : no output requested
 Time of computation ->  20110828.100000      in sec:     295200.
       not possible to compute accuracy, first iteration

 accuracy OK in  92.86 % of wet grid points ( 95.00 % required)

 accuracy OK in  92.86 % of wet grid points ( 95.00 % required)

 accuracy OK in  94.80 % of wet grid points ( 95.00 % required)

 accuracy OK in  99.12 % of wet grid points ( 95.00 % required)

 ** Warning          : no output requested
 Time of computation ->  20110828.102000      in sec:     296400.
       not possible to compute accuracy, first iteration

 accuracy OK in  92.78 % of wet grid points ( 95.00 % required)

 accuracy OK in  92.78 % of wet grid points ( 95.00 % required)

 accuracy OK in  94.72 % of wet grid points ( 95.00 % required)

 accuracy OK in  99.39 % of wet grid points ( 95.00 % required)

 ** Warning          : no output requested
 Time of computation ->  20110828.104000      in sec:     297600.
       not possible to compute accuracy, first iteration

 accuracy OK in  92.98 % of wet grid points ( 95.00 % required)

 accuracy OK in  92.98 % of wet grid points ( 95.00 % required)

 accuracy OK in  95.53 % of wet grid points ( 95.00 % required)

 ** Warning          : no output requested
 Time of computation ->  20110828.110000      in sec:     298800.
       not possible to compute accuracy, first iteration

 accuracy OK in  92.98 % of wet grid points ( 95.00 % required)

 accuracy OK in  92.98 % of wet grid points ( 95.00 % required)

 accuracy OK in  95.79 % of wet grid points ( 95.00 % required)

 ** Warning          : no output requested
 Time of computation ->  20110828.112000      in sec:     300000.
       not possible to compute accuracy, first iteration

 accuracy OK in  92.63 % of wet grid points ( 95.00 % required)

 accuracy OK in  92.63 % of wet grid points ( 95.00 % required)

 accuracy OK in  95.79 % of wet grid points ( 95.00 % required)

 ** Warning          : no output requested
 Time of computation ->  20110828.114000      in sec:     301200.
       not possible to compute accuracy, first iteration

 accuracy OK in  92.19 % of wet grid points ( 95.00 % required)

 accuracy OK in  92.19 % of wet grid points ( 95.00 % required)

 accuracy OK in  96.23 % of wet grid points ( 95.00 % required)

 ** Warning          : no output requested
 Time of computation ->  20110828.120000      in sec:     302400.
       not possible to compute accuracy, first iteration

 accuracy OK in  92.56 % of wet grid points ( 95.00 % required)

 accuracy OK in  92.56 % of wet grid points ( 95.00 % required)

 accuracy OK in  95.71 % of wet grid points ( 95.00 % required)

 ** Warning          : no output requested
